units(length='cm', time='s', quantity='mol', act_energy='cal/mol')

ideal_gas(name='gas',
          elements="O H C N Ar",
          species="""H2      H       O       O2      OH      
                     H2O     HO2     H2O2    C       CH      
                     CH2     CH2(S)  CH3     CH4     CO      
                     CO2     HCO     CH2O    CH2OH   CH3O    
                     CH3OH   C2H     C2H2    C2H3    C2H4    
                     C2H5    C2H6    HCCO    CH2CO   HCCOH  
                     N       NH      NH2     NH3     NNH    
                     NO      NO2     N2O     HNO     CN      
                     HCN     H2CN    HCNN    HCNO    HOCN    
                     HNCO    NCO     N2      AR      C3H7    
                     C3H8    CH2CHO  CH3CHO""",
          reactions='all',
          transport='Mix',
          initial_state=state(temperature=300.0, pressure=OneAtm))

#-------------------------------------------------------------------------------
# Species data
# Mechanism contains 53 species and 325 reactions.
#-------------------------------------------------------------------------------

species(name='H2',
        atoms='H:2',
        thermo=(NASA([300.00, 1000.00],
                     [ 2.34433112E+00,  7.98052075E-03, -1.94781510E-05,
                       2.01572094E-08, -7.37611761E-12, -9.17935173E+02,
                       6.83010238E-01]),
                NASA([1000.00, 5000.00],
                     [ 3.33727920E+00, -4.94024731E-05,  4.99456778E-07,
                      -1.79566394E-10,  2.00255376E-14, -9.50158922E+02,
                      -3.20502331E+00])),
        transport=gas_transport(geom='linear',
                                diam=2.92,
                                well_depth=38.0,
                                polar=0.79,
                                rot_relax=280.0),
        note='000000')

species(name='H',
        atoms='H:1',
        thermo=(NASA([300.00, 1000.00],
                     [ 2.50000000E+00,  7.05332819E-13, -1.99591964E-15,
                       2.30081632E-18, -9.27732332E-22,  2.54736599E+04,
                      -4.46682853E-01]),
                NASA([1000.00, 5000.00],
                     [ 2.50000001E+00, -2.30842973E-11,  1.61561948E-14,
                      -4.73515235E-18,  4.98197357E-22,  2.54736599E+04,
                      -4.46682914E-01])),
        transport=gas_transport(geom='atom',
                                diam=2.05,
                                well_depth=145.0),
        note='000000')

species(name='O',
        atoms='O:1',
        thermo=(NASA([300.00, 1000.00],
                     [ 3.16826710E+00, -3.27931884E-03,  6.64306396E-06,
                      -6.12806624E-09,  2.11265971E-12,  2.91222592E+04,
                       2.05193346E+00]),
                NASA([1000.00, 5000.00],
                     [ 2.56942078E+00, -8.59741137E-05,  4.19484589E-08,
                      -1.00177799E-11,  1.22833691E-15,  2.92175791E+04,
                       4.78433864E+00])),
        transport=gas_transport(geom='atom',
                                diam=2.75,
                                well_depth=80.0),
        note='000000')

species(name='O2',
        atoms='O:2',
        thermo=(NASA([300.00, 1000.00],
                     [ 3.78245636E+00, -2.99673416E-03,  9.84730201E-06,
                      -9.68129509E-09,  3.24372837E-12, -1.06394356E+03,
                       3.65767573E+00]),
                NASA([1000.00, 5000.00],
                     [ 3.28253784E+00,  1.48308754E-03, -7.57966669E-07,
                       2.09470555E-10, -2.16717794E-14, -1.08845772E+03,
                       5.45323129E+00])),
        transport=gas_transport(geom='linear',
                                diam=3.458,
                                well_depth=107.4,
                                polar=1.6,
                                rot_relax=3.8),
        note='000000')

species(name='OH',
        atoms='H:1 O:1',
        thermo=(NASA([300.00, 1000.00],
                     [ 4.12530561E+00, -3.22544939E-03,  6.52764691E-06,
                      -5.79853643E-09,  2.06237379E-12,  3.38153812E+03,
                      -6.90432960E-01]),
                NASA([1000.00, 5000.00],
                     [ 2.86472886E+00,  1.05650448E-03, -2.59082758E-07,
                       3.05218674E-11, -1.33195876E-15,  3.71885774E+03,
                       5.70164073E+00])),
        transport=gas_transport(geom='linear',
                                diam=2.75,
                                well_depth=80.0),
        note='000000')

species(name='H2O',
        atoms='H:2 O:1',
        thermo=(NASA([300.00, 1000.00],
                     [ 4.19864056E+00, -2.03643410E-03,  6.52040211E-06,
                      -5.48797062E-09,  1.77197817E-12, -3.02937267E+04,
                      -8.49032208E-01]),
                NASA([1000.00, 5000.00],
                     [ 3.03399249E+00,  2.17691804E-03, -1.64072518E-07,
                      -9.70419870E-11,  1.68200992E-14, -3.00042971E+04,
                       4.96677010E+00])),
        transport=gas_transport(geom='nonlinear',
                                diam=2.605,
                                well_depth=572.4,
                                dipole=1.844,
                                rot_relax=4.0),
        note='000000')

species(name='HO2',
        atoms='H:1 O:2',
        thermo=(NASA([300.00, 1000.00],
                     [ 4.30179801E+00, -4.74912051E-03,  2.11582891E-05,
                      -2.42763894E-08,  9.29225124E-12,  2.94808040E+02,
                       3.71666245E+00]),
                NASA([1000.00, 5000.00],
                     [ 4.01721090E+00,  2.23982013E-03, -6.33658150E-07,
                       1.14246370E-10, -1.07908535E-14,  1.11856713E+02,
                       3.78510215E+00])),
        transport=gas_transport(geom='nonlinear',
                                diam=3.458,
                                well_depth=107.4,
                                rot_relax=1.0),
        note='000000')

species(name='H2O2',
        atoms='H:2 O:2',
        thermo=(NASA([300.00, 1000.00],
                     [ 4.27611269E+00, -5.42822417E-04,  1.67335701E-05,
                      -2.15770813E-08,  8.62454363E-12, -1.77025821E+04,
                       3.43505074E+00]),
                NASA([1000.00, 5000.00],
                     [ 4.16500285E+00,  4.90831694E-03, -1.90139225E-06,
                       3.71185986E-10, -2.87908305E-14, -1.78617877E+04,
                       2.91615662E+00])),
        transport=gas_transport(geom='nonlinear',
                                diam=3.458,
                                well_depth=107.4,
                                rot_relax=3.8),
        note='000000')

species(name='C',
        atoms='C:1',
        thermo=(NASA([200.00, 1000.00],
                     [ 2.55423955E+00, -3.21537724E-04,  7.33792245E-07,
                      -7.32234889E-10,  2.66521446E-13,  8.54438832E+04,
                       4.53130848E+00]),
                NASA([1000.00, 3500.00],
                     [ 2.49266888E+00,  4.79889284E-05, -7.24335020E-08,
                       3.74291029E-11, -4.87277893E-15,  8.54512953E+04,
                       4.80150373E+00])),
        transport=gas_transport(geom='atom',
                                diam=3.298,
                                well_depth=71.4),
        note='L11/88')

species(name='CH',
        atoms='H:1 C:1',
        thermo=(NASA([300.00, 1000.00],
                     [ 3.48981665E+00,  3.23835541E-04, -1.68899065E-06,
                       3.16217327E-09, -1.40609067E-12,  7.07972934E+04,
                       2.08401108E+00]),
                NASA([1000.00, 5000.00],
                     [ 2.87846473E+00,  9.70913681E-04,  1.44445655E-07,
                      -1.30687849E-10,  1.76079383E-14,  7.10124364E+04,
                       5.48497999E+00])),
        transport=gas_transport(geom='linear',
                                diam=2.75,
                                well_depth=80.0),
        note='000000')

species(name='CH2',
        atoms='H:2 C:1',
        thermo=(NASA([200.00, 1000.00],
                     [ 3.76267867E+00,  9.68872143E-04,  2.79489841E-06,
                      -3.85091153E-09,  1.68741719E-12,  4.60040401E+04,
                       1.56253185E+00]),
                NASA([1000.00, 5000.00],
                     [ 2.87410113E+00,  3.65639292E-03, -1.40894597E-06,
                       2.60179549E-10, -1.87727567E-14,  4.62636040E+04,
                       6.17119324E+00])),
        transport=gas_transport(geom='linear',
                                diam=3.8,
                                well_depth=144.0),
        note='LS/93')

species(name='CH2(S)',
        atoms='H:2 C:1',
        thermo=(NASA([200.00, 1000.00],
                     [ 4.19860411E+00, -2.36661419E-03,  8.23296220E-06,
                      -6.68815981E-09,  1.94314737E-12,  5.04968163E+04,
                      -7.69118967E-01]),
                NASA([1000.00, 5000.00],
                     [ 2.29203842E+00,  4.65588637E-03, -2.01191947E-06,
                       4.17906000E-10, -3.39716365E-14,  5.09259997E+04,
                       8.62650169E+00])),
        transport=gas_transport(geom='linear',
                                diam=3.8,
                                well_depth=144.0),
        note='LS/93')

species(name='CH3',
        atoms='H:3 C:1',
        thermo=(NASA([300.00, 1000.00],
                     [ 3.67359040E+00,  2.01095175E-03,  5.73021856E-06,
                      -6.87117425E-09,  2.54385734E-12,  1.64449988E+04,
                       1.60456433E+00]),
                NASA([1000.00, 5000.00],
                     [ 2.28571772E+00,  7.23990037E-03, -2.98714348E-06,
                       5.95684644E-10, -4.67154394E-14,  1.67755843E+04,
                       8.48007179E+00])),
        transport=gas_transport(geom='linear',
                                diam=3.8,
                                well_depth=144.0),
        note='000000')

species(name='CH4',
        atoms='H:4 C:1',
        thermo=(NASA([300.00, 1000.00],
                     [ 5.14987613E+00, -1.36709788E-02,  4.91800599E-05,
                      -4.84743026E-08,  1.66693956E-11, -1.02466476E+04,
                      -4.64130376E+00]),
                NASA([1000.00, 5000.00],
                     [ 7.48514950E-02,  1.33909467E-02, -5.73285809E-06,
                       1.22292535E-09, -1.01815230E-13, -9.46834459E+03,
                       1.84373180E+01])),
        transport=gas_transport(geom='nonlinear',
                                diam=3.746,
                                well_depth=141.4,
                                polar=2.6,
                                rot_relax=13.0),
        note='000000')

species(name='CO',
        atoms='C:1 O:1',
        thermo=(NASA([300.00, 1000.00],
                     [ 3.57953347E+00, -6.10353680E-04,  1.01681433E-06,
                       9.07005884E-10, -9.04424499E-13, -1.43440860E+04,
                       3.50840928E+00]),
                NASA([1000.00, 5000.00],
                     [ 2.71518561E+00,  2.06252743E-03, -9.98825771E-07,
                       2.30053008E-10, -2.03647716E-14, -1.41518724E+04,
                       7.81868772E+00])),
        transport=gas_transport(geom='linear',
                                diam=3.65,
                                well_depth=98.1,
                                polar=1.95,
                                rot_relax=1.8),
        note='000000')

species(name='CO2',
        atoms='C:1 O:2',
        thermo=(NASA([300.00, 1000.00],
                     [ 2.35677352E+00,  8.98459677E-03, -7.12356269E-06,
                       2.45919022E-09, -1.43699548E-13, -4.83719697E+04,
                       9.90105222E+00]),
                NASA([1000.00, 5000.00],
                     [ 3.85746029E+00,  4.41437026E-03, -2.21481404E-06,
                       5.23490188E-10, -4.72084164E-14, -4.87591660E+04,
                       2.27163806E+00])),
        transport=gas_transport(geom='linear',
                                diam=3.763,
                                well_depth=244.0,
                                polar=2.65,
                                rot_relax=2.1),
        note='000000')

species(name='HCO',
        atoms='H:1 C:1 O:1',
        thermo=(NASA([300.00, 1000.00],
                     [ 4.22118584E+00, -3.24392532E-03,  1.37799446E-05,
                      -1.33144093E-08,  4.33768865E-12,  3.83956496E+03,
                       3.39437243E+00]),
                NASA([1000.00, 5000.00],
                     [ 2.77217438E+00,  4.95695526E-03, -2.48445613E-06,
                       5.89161778E-10, -5.33508711E-14,  4.01191815E+03,
                       9.79834492E+00])),
        transport=gas_transport(geom='nonlinear',
                                diam=3.59,
                                well_depth=498.0),
        note='000000')

species(name='CH2O',
        atoms='H:2 C:1 O:1',
        thermo=(NASA([300.00, 1000.00],
                     [ 4.79372315E+00, -9.90833369E-03,  3.73220008E-05,
                      -3.79285261E-08,  1.31772652E-11, -1.43089567E+04,
                       6.02812900E-01]),
                NASA([1000.00, 5000.00],
                     [ 1.76069008E+00,  9.20000082E-03, -4.42258813E-06,
                       1.00641212E-09, -8.83855640E-14, -1.39958323E+04,
                       1.36563230E+01])),
        transport=gas_transport(geom='nonlinear',
                                diam=3.59,
                                well_depth=498.0,
                                rot_relax=2.0),
        note='000000')

species(name='CH2OH',
        atoms='H:3 C:1 O:1',
        thermo=(NASA([300.00, 1000.00],
                     [ 4.47832317E+00, -1.35069687E-03,  2.78483707E-05,
                      -3.64867397E-08,  1.47906775E-11, -3.52476728E+03,
                       3.30911984E+00]),
                NASA([1000.00, 5000.00],
                     [ 5.09312037E+00,  5.94758550E-03, -2.06496524E-06,
                       3.23006703E-10, -1.88125052E-14, -4.05813228E+03,
                      -1.84690613E+00])),
        transport=gas_transport(geom='nonlinear',
                                diam=3.69,
                                well_depth=417.0,
                                dipole=1.7,
                                rot_relax=2.0),
        note='000000')

species(name='CH3O',
        atoms='H:3 C:1 O:1',
        thermo=(NASA([300.00, 1000.00],
                     [ 3.71180502E+00, -2.80463306E-03,  3.76550971E-05,
                      -4.73072089E-08,  1.86588420E-11,  1.30772484E+03,
                       6.57240864E+00]),
                NASA([1000.00, 5000.00],
                     [ 4.75779238E+00,  7.44142474E-03, -2.69705176E-06,
                       4.38090504E-10, -2.63537098E-14,  3.90139164E+02,
                      -1.96680028E+00])),
        transport=gas_transport(geom='nonlinear',
                                diam=3.69,
                                well_depth=417.0,
                                dipole=1.7,
                                rot_relax=2.0),
        note='000000')

species(name='CH3OH',
        atoms='H:4 C:1 O:1',
        thermo=(NASA([300.00, 1000.00],
                     [ 5.71539582E+00, -1.52309129E-02,  6.52441155E-05,
                      -7.10806889E-08,  2.61352698E-11, -2.56427656E+04,
                      -1.50409823E+00]),
                NASA([1000.00, 5000.00],
                     [ 1.78970791E+00,  1.40938292E-02, -6.36500835E-06,
                       1.38171085E-09, -1.17060220E-13, -2.53748747E+04,
                       1.45023623E+01])),
        transport=gas_transport(geom='nonlinear',
                                diam=3.626,
                                well_depth=481.8,
                                rot_relax=1.0),
        note='000000')

species(name='C2H',
        atoms='H:1 C:2',
        thermo=(NASA([300.00, 1000.00],
                     [ 2.88965733E+00,  1.34099611E-02, -2.84769501E-05,
                       2.94791045E-08, -1.09331511E-11,  6.68393932E+04,
                       6.22296438E+00]),
                NASA([1000.00, 5000.00],
                     [ 3.16780652E+00,  4.75221902E-03, -1.83787077E-06,
                       3.04190252E-10, -1.77232770E-14,  6.71210650E+04,
                       6.63589475E+00])),
        transport=gas_transport(geom='linear',
                                diam=3.721,
                                well_depth=265.3,
                                rot_relax=2.5),
        note='000000')

species(name='C2H2',
        atoms='H:2 C:2',
        thermo=(NASA([300.00, 1000.00],
                     [ 8.08681094E-01,  2.33615629E-02, -3.55171815E-05,
                       2.80152437E-08, -8.50072974E-12,  2.64289807E+04,
                       1.39397051E+01]),
                NASA([1000.00, 5000.00],
                     [ 4.14756964E+00,  5.96166664E-03, -2.37294852E-06,
                       4.67412171E-10, -3.61235213E-14,  2.59359992E+04,
                      -1.23028121E+00])),
        transport=gas_transport(geom='linear',
                                diam=3.721,
                                well_depth=265.3,
                                rot_relax=2.5),
        note='000000')

species(name='C2H3',
        atoms='H:3 C:2',
        thermo=(NASA([300.00, 1000.00],
                     [ 3.21246645E+00,  1.51479162E-03,  2.59209412E-05,
                      -3.57657847E-08,  1.47150873E-11,  3.48598468E+04,
                       8.51054025E+00]),
                NASA([1000.00, 5000.00],
                     [ 3.01672400E+00,  1.03302292E-02, -4.68082349E-06,
                       1.01763288E-09, -8.62607041E-14,  3.46128739E+04,
                       7.78732378E+00])),
        transport=gas_transport(geom='nonlinear',
                                diam=3.721,
                                well_depth=265.3,
                                rot_relax=1.0),
        note='000000')

species(name='C2H4',
        atoms='H:4 C:2',
        thermo=(NASA([300.00, 1000.00],
                     [ 3.95920148E+00, -7.57052247E-03,  5.70990292E-05,
                      -6.91588753E-08,  2.69884373E-11,  5.08977593E+03,
                       4.09733096E+00]),
                NASA([1000.00, 5000.00],
                     [ 2.03611116E+00,  1.46454151E-02, -6.71077915E-06,
                       1.47222923E-09, -1.25706061E-13,  4.93988614E+03,
                       1.03053693E+01])),
        transport=gas_transport(geom='nonlinear',
                                diam=3.496,
                                well_depth=238.4,
                                rot_relax=1.5),
        note='000000')

species(name='C2H5',
        atoms='H:5 C:2',
        thermo=(NASA([300.00, 1000.00],
                     [ 4.30646568E+00, -4.18658892E-03,  4.97142807E-05,
                      -5.99126606E-08,  2.30509004E-11,  1.28416265E+04,
                       4.70720924E+00]),
                NASA([1000.00, 5000.00],
                     [ 1.95465642E+00,  1.73972722E-02, -7.98206668E-06,
                       1.75217689E-09, -1.49641576E-13,  1.28575200E+04,
                       1.34624343E+01])),
        transport=gas_transport(geom='nonlinear',
                                diam=4.35,
                                well_depth=247.5,
                                rot_relax=1.5),
        note='000000')

species(name='C2H6',
        atoms='H:6 C:2',
        thermo=(NASA([300.00, 1000.00],
                     [ 4.29142492E+00, -5.50154270E-03,  5.99438288E-05,
                      -7.08466285E-08,  2.68685771E-11, -1.15222055E+04,
                       2.66682316E+00]),
                NASA([1000.00, 5000.00],
                     [ 1.07188150E+00,  2.16852677E-02, -1.00256067E-05,
                       2.21412001E-09, -1.90002890E-13, -1.14263932E+04,
                       1.51156107E+01])),
        transport=gas_transport(geom='nonlinear',
                                diam=4.35,
                                well_depth=247.5,
                                rot_relax=1.5),
        note='000000')

species(name='HCCO',
        atoms='H:1 C:2 O:1',
        thermo=(NASA([300.00, 1000.00],
                     [ 2.25172140E+00,  1.76550210E-02, -2.37291010E-05,
                       1.72757590E-08, -5.06648110E-12,  2.00594490E+04,
                       1.24904170E+01]),
                NASA([1000.00, 5000.00],
                     [ 5.62820580E+00,  4.08534010E-03, -1.59345470E-06,
                       2.86260520E-10, -1.94078320E-14,  1.93272150E+04,
                      -3.93025950E+00])),
        transport=gas_transport(geom='nonlinear',
                                diam=2.5,
                                well_depth=150.0,
                                rot_relax=1.0),
        note='000000')

species(name='CH2CO',
        atoms='H:2 C:2 O:1',
        thermo=(NASA([300.00, 1000.00],
                     [ 2.13583630E+00,  1.81188721E-02, -1.73947474E-05,
                       9.34397568E-09, -2.01457615E-12, -7.04291804E+03,
                       1.22156480E+01]),
                NASA([1000.00, 5000.00],
                     [ 4.51129732E+00,  9.00359745E-03, -4.16939635E-06,
                       9.23345882E-10, -7.94838201E-14, -7.55105311E+03,
                       6.32247205E-01])),
        transport=gas_transport(geom='nonlinear',
                                diam=3.97,
                                well_depth=436.0,
                                rot_relax=2.0),
        note='000000')

species(name='HCCOH',
        atoms='H:2 C:2 O:1',
        thermo=(NASA([300.00, 1000.00],
                     [ 1.24237330E+00,  3.10722010E-02, -5.08668640E-05,
                       4.31371310E-08, -1.40145940E-11,  8.03161430E+03,
                       1.38743190E+01]),
                NASA([1000.00, 5000.00],
                     [ 5.92382910E+00,  6.79236000E-03, -2.56585640E-06,
                       4.49878410E-10, -2.99401010E-14,  7.26462600E+03,
                      -7.60177420E+00])),
        transport=gas_transport(geom='nonlinear',
                                diam=3.97,
                                well_depth=436.0,
                                rot_relax=2.0),
        note='SRI91')

species(name='N',
        atoms='N:1',
        thermo=(NASA([300.00, 1000.00],
                     [ 2.50307100E+00, -2.18001800E-05,  5.42052900E-08,
                      -5.64756000E-11,  2.09990400E-14,  5.60989000E+04,
                       4.16756600E+00]),
                NASA([1000.00, 5000.00],
                     [ 2.45026800E+00,  1.06614580E-04, -7.46533700E-08,
                       1.87965200E-11, -1.02598390E-15,  5.61160400E+04,
                       4.44875800E+00])),
        transport=gas_transport(geom='atom',
                                diam=3.298,
                                well_depth=71.4),
        note='120186')

species(name='NH',
        atoms='H:1 N:1',
        thermo=(NASA([200.00, 1000.00],
                     [ 3.49290840E+00,  3.11791970E-04, -1.48904840E-06,
                       2.48164420E-09, -1.03569670E-12,  4.18942940E+04,
                       1.84832770E+00]),
                NASA([1000.00, 6000.00],
                     [ 2.78369290E+00,  1.32984290E-03, -4.24780470E-07,
                       7.83485040E-11, -5.50444700E-15,  4.21345140E+04,
                       5.74077980E+00])),
        transport=gas_transport(geom='linear',
                                diam=2.65,
                                well_depth=80.0,
                                rot_relax=4.0),
        note='L11/89')

species(name='NH2',
        atoms='H:2 N:1',
        thermo=(NASA([200.00, 1000.00],
                     [ 4.20556010E+00, -2.13552820E-03,  7.26820210E-06,
                      -5.93027990E-09,  1.80672180E-12,  2.15352230E+04,
                      -1.46632310E-01]),
                NASA([1000.00, 6000.00],
                     [ 2.84766110E+00,  3.14284530E-03, -8.98665570E-07,
                       1.30323570E-10, -7.48853560E-15,  2.18239160E+04,
                       6.47181330E+00])),
        transport=gas_transport(geom='nonlinear',
                                diam=2.65,
                                well_depth=80.0,
                                polar=2.26,
                                rot_relax=4.0),
        note='L12/89')

species(name='NH3',
        atoms='H:3 N:1',
        thermo=(NASA([200.00, 1000.00],
                     [ 4.30177808E+00, -4.77127330E-03,  2.19341619E-05,
                      -2.29856489E-08,  8.28992268E-12, -6.74806394E+03,
                      -6.90644393E-01]),
                NASA([1000.00, 6000.00],
                     [ 2.71709692E+00,  5.56856338E-03, -1.76886396E-06,
                       2.67417260E-10, -1.52731419E-14, -6.58451989E+03,
                       6.09289837E+00])),
        transport=gas_transport(geom='nonlinear',
                                diam=2.92,
                                well_depth=481.0,
                                dipole=1.47,
                                rot_relax=10.0),
        note='AMONIARUS89')

species(name='NNH',
        atoms='H:1 N:2',
        thermo=(NASA([200.00, 1000.00],
                     [ 4.34469270E+00, -4.84970720E-03,  2.00594590E-05,
                      -2.17264640E-08,  7.94695390E-12,  2.87919730E+04,
                       2.97794100E+00]),
                NASA([1000.00, 6000.00],
                     [ 3.76675440E+00,  2.89150820E-03, -1.04166200E-06,
                       1.68425940E-10, -1.00918960E-14,  2.86506970E+04,
                       4.47050670E+00])),
        transport=gas_transport(geom='nonlinear',
                                diam=3.798,
                                well_depth=71.4,
                                rot_relax=1.0),
        note='T07/93')

species(name='NO',
        atoms='O:1 N:1',
        thermo=(NASA([200.00, 1000.00],
                     [ 4.21859896E+00, -4.63988124E-03,  1.10443049E-05,
                      -9.34055507E-09,  2.80554874E-12,  9.84509964E+03,
                       2.28061001E+00]),
                NASA([1000.00, 6000.00],
                     [ 3.26071234E+00,  1.19101135E-03, -4.29122646E-07,
                       6.94481463E-11, -4.03295681E-15,  9.92143132E+03,
                       6.36900518E+00])),
        transport=gas_transport(geom='linear',
                                diam=3.621,
                                well_depth=97.53,
                                polar=1.76,
                                rot_relax=4.0),
        note='RUS89')

species(name='NO2',
        atoms='O:2 N:1',
        thermo=(NASA([200.00, 1000.00],
                     [ 3.94403120E+00, -1.58542900E-03,  1.66578120E-05,
                      -2.04754260E-08,  7.83505640E-12,  2.89661800E+03,
                       6.31199190E+00]),
                NASA([1000.00, 6000.00],
                     [ 4.88475400E+00,  2.17239550E-03, -8.28069090E-07,
                       1.57475100E-10, -1.05108950E-14,  2.31649820E+03,
                      -1.17416950E-01])),
        transport=gas_transport(geom='nonlinear',
                                diam=3.5,
                                well_depth=200.0,
                                rot_relax=1.0),
        note='L7/88')

species(name='N2O',
        atoms='O:1 N:2',
        thermo=(NASA([200.00, 1000.00],
                     [ 2.25715020E+00,  1.13047280E-02, -1.36713190E-05,
                       9.68198030E-09, -2.93071820E-12,  8.74177460E+03,
                       1.07579920E+01]),
                NASA([1000.00, 6000.00],
                     [ 4.82307290E+00,  2.62702510E-03, -9.58508720E-07,
                       1.60007120E-10, -9.77523020E-15,  8.07340470E+03,
                      -2.20172080E+00])),
        transport=gas_transport(geom='linear',
                                diam=3.828,
                                well_depth=232.4,
                                rot_relax=1.0),
        note='L7/88')

species(name='HNO',
        atoms='H:1 O:1 N:1',
        thermo=(NASA([200.00, 1000.00],
                     [ 4.53524750E+00, -5.68539720E-03,  1.85198500E-05,
                      -1.71882730E-08,  5.55832070E-12,  1.10398810E+04,
                       1.74319190E+00]),
                NASA([1000.00, 3500.00],
                     [ 3.16552290E+00,  3.00008620E-03, -3.94366190E-07,
                      -3.85758150E-11,  7.08071890E-15,  1.11944260E+04,
                       7.64778330E+00])),
        transport=gas_transport(geom='nonlinear',
                                diam=3.492,
                                well_depth=116.7,
                                rot_relax=1.0),
        note='L12/89')

species(name='CN',
        atoms='C:1 N:1',
        thermo=(NASA([200.00, 1000.00],
                     [ 3.61293500E+00, -9.55513270E-04,  2.14429760E-06,
                      -3.15163240E-10, -4.64303560E-13,  5.25253400E+04,
                       3.98049950E+00]),
                NASA([1000.00, 6000.00],
                     [ 3.74598040E+00,  4.34507730E-05,  2.97059840E-07,
                      -6.86518040E-11,  4.41341740E-15,  5.23531880E+04,
                       2.78676000E+00])),
        transport=gas_transport(geom='linear',
                                diam=3.856,
                                well_depth=75.0,
                                rot_relax=1.0),
        note='T6/94')

species(name='HCN',
        atoms='H:1 C:1 N:1',
        thermo=(NASA([200.00, 1000.00],
                     [ 2.25898850E+00,  1.00511700E-02, -1.33517630E-05,
                       1.00923490E-08, -3.00890290E-12,  1.52158530E+04,